18

C      2.407489   -0.361393   -0.591289
C      1.608066    0.246994    0.541129
C      0.146052    0.103107    0.327915
C     -0.573279   -0.994653    0.784215
C     -1.927816   -1.028555    0.532371
C     -2.552871   -0.006185   -0.151077
C     -1.835396    1.100975   -0.612882
C     -0.479457    1.138772   -0.362890
H      3.341829    0.244537   -0.715283
H      1.830816   -0.209914   -1.529798
H      2.698770   -1.397283   -0.406544
H      1.914362    1.305263    0.687273
H      1.852029   -0.290514    1.485470
H     -0.057366   -1.779048    1.315836
H     -2.494485   -1.890975    0.890545
H     -3.618798   -0.086398   -0.320006
H     -2.339504    1.905956   -1.153387
H      0.079559    1.999315   -0.721600
